
[TITLE]
;;Project Title/Notes

[OPTIONS]
;;Option             Value
FLOW_UNITS           CMS
INFILTRATION         GREEN_AMPT
FLOW_ROUTING         DYNWAVE
LINK_OFFSETS         DEPTH
MIN_SLOPE            0
ALLOW_PONDING        YES
SKIP_STEADY_STATE    YES

START_DATE           05/06/2016
START_TIME           15:00:00
REPORT_START_DATE    05/06/2016
REPORT_START_TIME    15:00:00
END_DATE             05/07/2016
END_TIME             00:00:00
SWEEP_START          01/01
SWEEP_END            12/31
DRY_DAYS             0
REPORT_STEP          00:01:00
WET_STEP             00:01:00
DRY_STEP             01:00:00
ROUTING_STEP         0:00:05 

INERTIAL_DAMPING     PARTIAL
NORMAL_FLOW_LIMITED  BOTH
FORCE_MAIN_EQUATION  H-W
VARIABLE_STEP        0.75
LENGTHENING_STEP     0
MIN_SURFAREA         1.14
MAX_TRIALS           8
HEAD_TOLERANCE       0.0015
SYS_FLOW_TOL         5
LAT_FLOW_TOL         5
MINIMUM_STEP         0.5
THREADS              3

[EVAPORATION]
;;Data Source    Parameters
;;-------------- ----------------
CONSTANT         0.0
DRY_ONLY         NO

[RAINGAGES]
;;Name           Format    Interval SCF      Source    
;;-------------- --------- ------ ------ ----------
RG200S           VOLUME    0:15     1.0      TIMESERIES T200            
RG322            VOLUME    0:05     1.0      TIMESERIES T322            
RG3810           VOLUME    0:05     1.0      TIMESERIES T3810           
RG382            VOLUME    0:05     1.0      TIMESERIES T382            
RG12810          VOLUME    0:05     1.0      TIMESERIES T12810          
RG121310         VOLUME    0:05     1.0      TIMESERIES T121310         
RG121314         VOLUME    0:05     1.0      TIMESERIES T121314         
RG181314         VOLUME    0:05     1.0      TIMESERIES T181314         
RG1800N          VOLUME    0:15     1.0      TIMESERIES T1800           
RG181814         VOLUME    0:05     1.0      TIMESERIES T181814         

[SUBCATCHMENTS]
;;Name           Rain Gage        Outlet           Area     %Imperv  Width    %Slope   CurbLen  SnowPack        
;;-------------- ---------------- ---------------- -------- -------- -------- -------- -------- ----------------
S0               RG1800N          J111             0.032735 13.849596  75.531973  25.457085 0                        
S1               RG1800N          AFID6926         9.799843 56.924100  1230.503736  3.976056 0                        
S2               RG121314         FID2833          17.24439 71.129802  2258.275405  4.287632 0                        
S3               RG181814         FID2720          3.227459 35.405817  977.137916  3.296508 0                        
S4               RG181814         FID2719          9.945692 53.438217  2268.200284  3.518419 0                        
S6               RG121314         FID2873          1.876883 85.780730  344.363738  3.694304 0                        
S7               RG121314         FID2839          39.10405 82.697937  1669.118703  3.734266 0                        
S8               RG121314         FID2824          0.016436 85.755530  32.015508  1.538752 0                        
S9               RG121314         FID2827          0.021528 74.138709  32.015508  2.551544 0                        
S10              RG121314         FID2828          0.260392 72.275856  487.300653  3.828841 0                        
S11              RG121314         FID5503          0.068682 21.883932  207.731391  19.107669 0                        
S12              RG121314         AFID7360         0.013248 68.557508 40.142520 4.642314 0                        
S13              RG121314         FID5504          7.544662 64.499912 1086.261539 3.099273 0                        
S14              RG121314         J87              0.585450 30.737093 589.159226 7.455850 0                        
S16              RG121314         FID2964          5.569561 80.308613  570.688882  4.021529 0                        
S17              RG121314         AFID7376         19.20801 69.456429 2074.851217 3.596094 0                        
S18              RG121310         J122             0.020011 80.044855 76.246162 1.769813 0                        
S19              RG121310         FID5527          2.157034 46.613629 362.464792 3.849119 0                        
S20              RG121310         J121             0.528505 66.868963 1009.695229 2.746436 0                        
S21              RG12810          FID5435          53.60392 55.996322  1969.603967  3.732592 0                        
S22              RG12810          FID5437          0.138131 75.191280 114.590890 3.242735 0                        
S23              RG12810          J80              1.640345 40.783291 625.952439 4.091471 0                        
S24              RG12810          FID2239          1.918536 44.195058 426.618952 4.251998 0                        
S25              RG12810          FID2242          1.262921 63.401447 244.820139 3.541072 0                        
S27              RG12810          FID2244          0.535815 57.746806 534.683619 5.300834 0                        
S28              RG1800N          J116             0.078484 0.173861 447.626048 40.524421 0                        
S29              RG1800N          J108             0.066456 0.759309 305.575718 35.575902 0                        
S30              RG121314         J94              0.037530 0.343926 164.756735 26.066767 0                        
S31              RG121314         J92              0.053769 0.130103 245.066408 31.770026 0                        
S32              RG121310         J81              0.430362 27.050204 967.533279 16.071580 0                        
S33              RG12810          J24              1.159621 78.018920 740.321655 3.431398 0                        
S34              RG12810          FID5140          35.32634 53.063174  2177.409996  3.910971 0                        
S35              RG12810          FID5568          0.333523 44.498567 432.800432 3.892781 0                        
S36              RG3810           J75              1.248602 21.030313 1060.255102 10.623099 0                        
S37              RG3810           FID5068          0.522697 72.844121 382.240559 3.773504 0                        
S39              RG3810           FID5072          14.81430 42.078818 2535.652856 4.277656 0                        
S40              RG3810           J72              2.190895 31.245440 335.596420 3.788916 0                        
S41              RG3810           J17              13.60832 67.247405 3052.727848 4.284258 0                        
S42              RG3810           FID2455          10.16080 60.838655 1932.037446 3.405348 0                        
S43              RG382            J68              1.929918 26.056650 464.594266 7.418138 0                        
S44              RG382            AFID7792         22.56932 59.723842 2687.184792 4.230396 0                        
S45              RG322            FID2449          0.046532 45.563198 54.180091 4.274788 0                        
S47              RG322            FID2446          4.258099 59.223004 3097.032662 4.083721 0                        
S48              RG322            J16              0.288515 50.923126 396.401265 5.644933 0                        
S49              RG322            J15              18.72998 57.238649 3102.376597 3.793937 0                        
S51              RG322            J60              1.007224 14.658437 465.850283 5.289103 0                        
S52              RG322            FID1936          6.707520 53.218929 3037.040260 4.824946 0                        
S53              RG322            J14              13.94476 55.079449 3121.093296 3.636946 0                        
S54              RG200S           FID1960          9.447084 41.668285 2990.445575 3.844195 0                        
S55              RG200S           FID1955          16.30126 53.003153 2843.543585 3.651630 0                        
S56              RG200S           J50              0.015375 28.574372 481.020718 3.360316 0                        
S57              RG200S           FID1968          0.998425 59.765257 3207.879927 5.129557 0                        
S58              RG200S           FID1965          4.071886 48.739192 1472.122355 4.601519 0                        
S59              RG200S           J12              2.538397 14.409787 465.751753 3.200749 0                        
S60              RG200S           J1               2.627566 29.868676 480.429649 4.328145 0                        
S61              RG200S           J58              0.864358 12.429938 467.278672 3.302920 0                        
S62              RG322            J65              2.547014 18.686064 546.480086 4.055880 0                        
S63              RG3810           J70              1.538078 16.455193 507.051769 4.004775 0                        
S64              RG3810           J19              1.403301 56.559435 2194.170584 5.210831 0                        
S65              RG12810          J77              16.85641 34.475645 1219.446096 3.964883 0                        

[SUBAREAS]
;;Subcatchment   N-Imperv   N-Perv     S-Imperv   S-Perv     PctZero    RouteTo    PctRouted 
;;-------------- ---------- ---------- ---------- ---------- ---------- ---------- ----------
S0               0.015589      0.085587      1.630767      19.181484      5.862718      PERVIOUS   4.916397     
S1               0.015589      0.085587      1.630767      19.181484      5.862718      PERVIOUS   4.916397     
S2               0.015589      0.085587      1.630767      19.181484      5.862718      PERVIOUS   4.916397     
S3               0.015589      0.085587      1.630767      19.181484      5.862718      PERVIOUS   4.916397     
S4               0.015589      0.085587      1.630767      19.181484      5.862718      PERVIOUS   4.916397     
S6               0.015589      0.085587      1.630767      19.181484      5.862718      PERVIOUS   4.916397     
S7               0.027529      0.082522      1.960652      34.242408      5.581153      PERVIOUS   9.550626     
S8               0.015589      0.085587      1.630767      19.181484      5.862718      PERVIOUS   4.916397     
S9               0.015589      0.085587      1.630767      19.181484      5.862718      PERVIOUS   4.916397     
S10              0.015589      0.085587      1.630767      19.181484      5.862718      PERVIOUS   4.916397     
S11              0.015589      0.085587      1.630767      19.181484      5.862718      PERVIOUS   4.916397     
S12              0.015589      0.085587      1.630767      19.181484      5.862718      PERVIOUS   4.916397     
S13              0.015589      0.085587      1.630767      19.181484      5.862718      PERVIOUS   4.916397     
S14              0.015589      0.085587      1.630767      19.181484      5.862718      PERVIOUS   4.916397     
S16              0.030643      0.087470      7.061520      14.250978      49.335183      PERVIOUS   31.754648     
S17              0.015589      0.085587      1.630767      19.181484      5.862718      PERVIOUS   4.916397     
S18              0.015589      0.085587      1.630767      19.181484      5.862718      PERVIOUS   4.916397     
S19              0.015589      0.085587      1.630767      19.181484      5.862718      PERVIOUS   4.916397     
S20              0.015589      0.085587      1.630767      19.181484      5.862718      PERVIOUS   4.916397     
S21              0.029047      0.086767      0.100605      17.069413      49.793842      PERVIOUS   50.770800     
S22              0.015589      0.085587      1.630767      19.181484      5.862718      PERVIOUS   4.916397     
S23              0.015589      0.085587      1.630767      19.181484      5.862718      PERVIOUS   4.916397     
S24              0.015589      0.085587      1.630767      19.181484      5.862718      PERVIOUS   4.916397     
S25              0.015589      0.085587      1.630767      19.181484      5.862718      PERVIOUS   4.916397     
S27              0.015589      0.085587      1.630767      19.181484      5.862718      PERVIOUS   4.916397     
S28              0.015589      0.085587      1.630767      19.181484      5.862718      PERVIOUS   4.916397     
S29              0.015589      0.085587      1.630767      19.181484      5.862718      PERVIOUS   4.916397     
S30              0.015589      0.085587      1.630767      19.181484      5.862718      PERVIOUS   4.916397     
S31              0.015589      0.085587      1.630767      19.181484      5.862718      PERVIOUS   4.916397     
S32              0.015589      0.085587      1.630767      19.181484      5.862718      PERVIOUS   4.916397     
S33              0.015589      0.085587      1.630767      19.181484      5.862718      PERVIOUS   4.916397     
S34              0.030350      0.111597      2.071865      32.923464      2.437545      PERVIOUS   2.509591     
S35              0.015589      0.085587      1.630767      19.181484      5.862718      PERVIOUS   4.916397     
S36              0.015589      0.085587      1.630767      19.181484      5.862718      PERVIOUS   4.916397     
S37              0.015589      0.085587      1.630767      19.181484      5.862718      PERVIOUS   4.916397     
S39              0.015589      0.085587      1.630767      19.181484      5.862718      PERVIOUS   4.916397     
S40              0.015589      0.085587      1.630767      19.181484      5.862718      PERVIOUS   4.916397     
S41              0.015589      0.085587      1.630767      19.181484      5.862718      PERVIOUS   4.916397     
S42              0.015589      0.085587      1.630767      19.181484      5.862718      PERVIOUS   4.916397     
S43              0.015589      0.085587      1.630767      19.181484      5.862718      PERVIOUS   4.916397     
S44              0.015589      0.085587      1.630767      19.181484      5.862718      PERVIOUS   4.916397     
S45              0.015589      0.085587      1.630767      19.181484      5.862718      PERVIOUS   4.916397     
S47              0.015589      0.085587      1.630767      19.181484      5.862718      PERVIOUS   4.916397     
S48              0.015589      0.085587      1.630767      19.181484      5.862718      PERVIOUS   4.916397     
S49              0.015589      0.085587      1.630767      19.181484      5.862718      PERVIOUS   4.916397     
S51              0.015589      0.085587      1.630767      19.181484      5.862718      PERVIOUS   4.916397     
S52              0.015589      0.085587      1.630767      19.181484      5.862718      PERVIOUS   4.916397     
S53              0.015589      0.085587      1.630767      19.181484      5.862718      PERVIOUS   4.916397     
S54              0.015589      0.085587      1.630767      19.181484      5.862718      PERVIOUS   4.916397     
S55              0.015589      0.085587      1.630767      19.181484      5.862718      PERVIOUS   4.916397     
S56              0.015589      0.085587      1.630767      19.181484      5.862718      PERVIOUS   4.916397     
S57              0.015589      0.085587      1.630767      19.181484      5.862718      PERVIOUS   4.916397     
S58              0.015589      0.085587      1.630767      19.181484      5.862718      PERVIOUS   4.916397     
S59              0.015589      0.085587      1.630767      19.181484      5.862718      PERVIOUS   4.916397     
S60              0.015589      0.085587      1.630767      19.181484      5.862718      PERVIOUS   4.916397     
S61              0.015589      0.085587      1.630767      19.181484      5.862718      PERVIOUS   4.916397     
S62              0.015589      0.085587      1.630767      19.181484      5.862718      PERVIOUS   4.916397     
S63              0.015589      0.085587      1.630767      19.181484      5.862718      PERVIOUS   4.916397     
S64              0.015589      0.085587      1.630767      19.181484      5.862718      PERVIOUS   4.916397     
S65              0.015589      0.085587      1.630767      19.181484      5.862718      PERVIOUS   4.916397     

[INFILTRATION]
;;Subcatchment   Suction    Ksat       IMD       
;;-------------- ---------- ---------- ----------
S0               875.623815      0.811769      0.2       
S1               875.623815      0.811769      0.2       
S2               875.623815      0.811769      0.2       
S3               875.623815      0.811769      0.2       
S4               875.623815      0.811769      0.2       
S6               875.623815      0.811769      0.2       
S7               409.571012      1.009648      0.2       
S8               875.623815      0.811769      0.2       
S9               875.623815      0.811769      0.2       
S10              875.623815      0.811769      0.2       
S11              875.623815      0.811769      0.2       
S12              875.623815      0.811769      0.2       
S13              875.623815      0.811769      0.2       
S14              875.623815      0.811769      0.2       
S16              700.057783      0.807957      0.2       
S17              875.623815      0.811769      0.2       
S18              875.623815      0.811769      0.2       
S19              875.623815      0.811769      0.2       
S20              875.623815      0.811769      0.2       
S21              809.548344      0.967295      0.2       
S22              875.623815      0.811769      0.2       
S23              875.623815      0.811769      0.2       
S24              875.623815      0.811769      0.2       
S25              875.623815      0.811769      0.2       
S27              875.623815      0.811769      0.2       
S28              875.623815      0.811769      0.2       
S29              875.623815      0.811769      0.2       
S30              875.623815      0.811769      0.2       
S31              875.623815      0.811769      0.2       
S32              875.623815      0.811769      0.2       
S33              875.623815      0.811769      0.2       
S34              959.342113      1.411262      0.2       
S35              875.623815      0.811769      0.2       
S36              875.623815      0.811769      0.2       
S37              875.623815      0.811769      0.2       
S39              875.623815      0.811769      0.2       
S40              875.623815      0.811769      0.2       
S41              875.623815      0.811769      0.2       
S42              875.623815      0.811769      0.2       
S43              875.623815      0.811769      0.2       
S44              875.623815      0.811769      0.2       
S45              875.623815      0.811769      0.2       
S47              875.623815      0.811769      0.2       
S48              875.623815      0.811769      0.2       
S49              875.623815      0.811769      0.2       
S51              875.623815      0.811769      0.2       
S52              875.623815      0.811769      0.2       
S53              875.623815      0.811769      0.2       
S54              875.623815      0.811769      0.2       
S55              875.623815      0.811769      0.2       
S56              875.623815      0.811769      0.2       
S57              875.623815      0.811769      0.2       
S58              875.623815      0.811769      0.2       
S59              875.623815      0.811769      0.2       
S60              875.623815      0.811769      0.2       
S61              875.623815      0.811769      0.2       
S62              875.623815      0.811769      0.2       
S63              875.623815      0.811769      0.2       
S64              875.623815      0.811769      0.2       
S65              875.623815      0.811769      0.2       

[JUNCTIONS]
;;Name           Elevation  MaxDepth   InitDepth  SurDepth   Aponded   
;;-------------- ---------- ---------- ---------- ---------- ----------
FID1936          1376.30    0.88392    0          0          10        
FID1955          1375.92    0.44196    0          0          10        
FID1960          1375.86    0.4572     0          0          10        
FID1965          1376.30    0.2286     0          0          10        
FID1968          1376.40    0.27432    0          0          10        
FID2239          1374.51    1.08204    0          0          10        
FID2241          1373.13    1.50876    0          0          10        
FID2242          1374.04    0.82296    0          0          10        
FID2244          1374.36    0.381      0          0          10        
FID2440          1374.248211 0          0          0          10        
FID2442          1375.27    0.51816    0          0          10        
FID2446          1375.80    0.42672    0          0          10        
FID2447          1375.70    0.70104    0          0          10        
FID2455          1373.9891  0          0          0          10        
FID2711          1370.18    0.67056    0          0          10        
FID2719          1370.10    0.9144     0          0          10        
FID2720          1370.2     0.9144     0          0          10        
FID2824          1371.28    1.26492    0          0          10        
FID2827          1371.30    1.26492    0          0          10        
FID2828          1371.32    1.2954     0          0          10        
FID2832          1370.6     1.34112    0          0          10        
FID2833          1370.62    1.34112    0          0          10        
FID2839          1371.2     1.40208    0          0          10        
FID2873          1370.70    1.8288     0          0          10        
FID2964          1370.78    0.9144     0          0          10        
FID2965          1370.261107 0          0          0          10        
FID4584          1371.34    0.85344    0          0          10        
FID5068          1375.38    0.9144     0          0          10        
FID5072          1373.29155 0          0          0          10        
FID5140          1373.22    1.64592    0          0          10        
FID5435          1372.75    1.2192     0          0          10        
FID5437          1372.95    0.6096     0          0          10        
FID5503          1371.33    0.39624    0          0          10        
FID5504          1371.36    0.97536    0          0          10        
FID5527          1372.5     0.48768    0          0          10        
FID5568          1372.392004 0          0          0          10        
FID5784          1371.996762 0          0          0          10        
FID5785          1374.43    1.0668     0          0          10        
AFID6926         1369.80    0.9144     0          0          10        
AFID7360         1370.130216 0          0          0          10        
AFID7363         1370.167986 0          0          0          10        
AFID7376         1371.23    0.9144     0          0          10        
AFID7377         1370.67914 0          0          0          10        
AFID7705         1374.966714 0          0          0          10        
AFID7706         1374.914937 0          0          0          10        
AFID7792         1374.8     0.9144     0          0          10        
AFID8223         1372.001807 0          0          0          10        
J1               1374.9924  0          0          0          10        
FID4901          1375.07131 0          0          0          10        
J9               1375.0930  0          0          0          10        
J11              1375.205784 0          0          0          10        
J12              1375.114092 0          0          0          10        
J13              1375.078791 0          0          0          10        
FID4902          1375.047731 0          0          0          10        
J14              1374.91351 0          0          0          10        
J15              1374.663332 0          0          0          10        
J16              1374.640589 0          0          0          10        
FID2449          1374.31839 0          0          0          10        
J17              1373.9713  0          0          0          10        
J19              1373.545922 0          0          0          10        
FID5069          1373.258355 0          0          0          10        
FID5139          1372.3528  0          0          0          10        
J24              1372.365059 0          0          0          10        
FID4984          1371.960063 0          0          0          10        
FID2669          1368.440446 0          0          0          10        
FID2712          1369.191926 0          0          0          10        
FID2718          1369.242515 0          0          0          10        
FID2838          1369.940237 0          0          0          10        
FID2825          1369.905433 0          0          0          10        
FID2823          1369.8748  0          0          0          10        
FID5505          1370.024712 0          0          0          10        
FID5436          1371.3226  0          0          0          10        
FID5438          1371.425652 0          0          0          10        
J49              1375.021038 0          0          0          10        
J50              1374.966029 0          0          0          10        
J51              1374.894435 0          0          0          10        
J52              1374.8796  0          0          0          10        
J53              1374.920691 0          0          0          10        
J54              1374.950825 0          0          0          10        
J55              1375.0259  0          0          0          10        
J56              1375.0258  0          0          0          10        
J57              1375.0257  0          0          0          10        
J58              1374.977076 0          0          0          10        
FID1935          1374.889581 0          0          0          10        
J59              1374.871402 0          0          0          10        
J60              1374.823099 0          0          0          10        
J61              1374.768005 0          0          0          10        
J62              1374.7516  0          0          0          10        
J63              1374.6876  0          0          0          10        
J64              1374.615181 0          0          0          10        
J65              1374.578508 0          0          0          10        
J66              1374.213354 0          0          0          10        
J67              1374.150438 0          0          0          10        
J68              1374.06788 0          0          0          10        
J69              1373.7275  0          0          0          10        
J70              1373.650199 0          0          0          10        
J71              1373.596582 0          0          0          10        
J72              1373.3495  0          0          0          10        
J73              1373.22138 0          0          0          10        
J74              1372.982434 0          0          0          10        
J75              1372.844941 0          0          0          10        
J76              1372.337344 0          0          0          10        
J77              1372.203001 0          0          0          10        
J78              1372.07098 0          0          0          10        
J79              1372.009755 0          0          0          10        
J80              1371.4872  0          0          0          10        
J81              1370.992885 0          0          0          10        
J82              1370.930134 0          0          0          10        
J83              1370.8014  0          0          0          10        
J84              1370.638646 0          0          0          10        
J85              1370.521238 0          0          0          10        
J86              1370.373775 0          0          0          10        
J87              1370.190145 0          0          0          10        
J88              1370.047123 0          0          0          10        
J89              1369.988705 0          0          0          10        
J90              1369.9510  0          0          0          10        
J91              1369.88655 0          0          0          10        
J92              1369.834556 0          0          0          10        
J93              1369.72273 0          0          0          10        
J94              1369.657469 0          0          0          10        
J95              1369.637041 0          0          0          10        
J96              1369.556026 0          0          0          10        
J97              1369.49608 0          0          0          10        
J98              1369.445368 0          0          0          10        
J99              1369.397351 0          0          0          10        
J100             1369.360396 0          0          0          10        
J101             1369.322875 0          0          0          10        
J102             1369.2683  0          0          0          10        
J103             1369.223592 0          0          0          10        
J104             1369.161049 0          0          0          10        
J105             1369.124609 0          0          0          10        
J106             1369.0763  0          0          0          10        
J107             1368.935231 0          0          0          10        